<?xml version="1.0" encoding="UTF-8"?>

<!-- generated on 2025-04-24 13:07:59 by Eclipse SUMO sumo Version 1.21.0
-->

<sumoConfiguration xmlns:xsi="http://www.w3.org/2001/XMLSchema-instance" xsi:noNamespaceSchemaLocation="http://sumo.dlr.de/xsd/sumoConfiguration.xsd">

    <input>
        <net-file value="nairobi.net.xml"/>
        <route-files value="nairobi.rou.xml"/>
        <additional-files value="nairobi.add.xml"/>
    </input>

</sumoConfiguration>
