<?xml version="1.0" encoding="UTF-8"?>

<!-- generated on 2025-04-21 16:59:28 by Eclipse SUMO netedit Version 1.21.0
<neteditConfiguration xmlns:xsi="http://www.w3.org/2001/XMLSchema-instance" xsi:noNamespaceSchemaLocation="http://sumo.dlr.de/xsd/neteditConfiguration.xsd">

    <input>
        <sumocfg-file value="/home/simba/Documents/Traci/R1.sumocfg"/>
        <additional-files value="/home/simba/Documents/Traci/R1.add.xml"/>
        <route-files value="/home/simba/Documents/Traci/R1.rou.xml"/>
        <data-files value="/home/simba/Documents/Traci/R1.dat.xml"/>
        <sumo-net-file value="/home/simba/Documents/Traci/R1.net.xml"/>
    </input>

    <output>
        <output-file value="/home/simba/Documents/Traci/R1.net.xml"/>
    </output>

    <processing>
        <offset.disable-normalization value="true"/>
    </processing>

    <junctions>
        <no-turnarounds value="true"/>
    </junctions>

    <netedit>
        <new-network value="false"/>
    </netedit>

</neteditConfiguration>
-->

<net version="1.20" junctionCornerDetail="5" limitTurnSpeed="5.50" xmlns:xsi="http://www.w3.org/2001/XMLSchema-instance" xsi:noNamespaceSchemaLocation="http://sumo.dlr.de/xsd/net_file.xsd">

    <location netOffset="0.00,0.00" convBoundary="-148.46,-60.25,107.77,123.82" origBoundary="10000000000.00,10000000000.00,-10000000000.00,-10000000000.00" projParameter="!"/>

    <edge id=":J9_0" function="internal">
        <lane id=":J9_0_0" index="0" speed="3.90" length="2.62" shape="99.37,-50.41 99.26,-51.12 98.95,-51.62 98.44,-51.91 97.73,-52.00"/>
        <lane id=":J9_0_1" index="1" speed="6.07" length="7.86" shape="102.57,-50.42 102.25,-52.56 101.33,-54.07 99.79,-54.95 97.64,-55.20"/>
        <lane id=":J9_0_2" index="2" speed="7.65" length="13.10" shape="105.77,-50.44 105.24,-54.00 103.70,-56.51 101.14,-57.98 97.56,-58.39"/>
    </edge>
    <edge id=":J9_3" function="internal">
        <lane id=":J9_3_0" index="0" speed="11.12" length="28.82" shape="97.31,-67.99 105.18,-67.07 110.81,-63.85 114.21,-58.32 115.37,-50.48"/>
        <lane id=":J9_3_1" index="1" speed="10.09" length="23.58" shape="97.39,-64.79 103.83,-64.04 108.44,-61.40 111.22,-56.88 112.17,-50.47"/>
        <lane id=":J9_3_2" index="2" speed="8.96" length="18.34" shape="97.48,-61.59 102.48,-61.01 106.07,-58.96 108.23,-55.44 108.97,-50.45"/>
    </edge>
    <edge id=":Node1_0" function="internal">
        <lane id=":Node1_0_0" index="0" speed="11.13" length="27.84" shape="-137.19,36.65 -144.71,35.55 -150.14,32.32 -153.48,26.96 -154.73,19.46"/>
        <lane id=":Node1_0_1" index="1" speed="10.10" length="22.78" shape="-137.18,33.45 -143.33,32.55 -147.78,29.91 -150.51,25.52 -151.53,19.38"/>
        <lane id=":Node1_0_2" index="2" speed="8.97" length="17.72" shape="-137.17,30.25 -141.95,29.55 -145.41,27.50 -147.53,24.08 -148.33,19.31"/>
    </edge>
    <edge id=":Node1_3" function="internal">
        <lane id=":Node1_3_0" index="0" speed="3.91" length="2.53" shape="-138.73,19.09 -138.62,19.77 -138.31,20.26 -137.82,20.55 -137.14,20.65"/>
        <lane id=":Node1_3_1" index="1" speed="6.08" length="7.59" shape="-141.93,19.16 -141.59,21.21 -140.68,22.67 -139.20,23.55 -137.15,23.85"/>
        <lane id=":Node1_3_2" index="2" speed="7.66" length="12.66" shape="-145.13,19.24 -144.56,22.65 -143.04,25.08 -140.58,26.55 -137.16,27.05"/>
    </edge>
    <edge id=":Node2_0" function="internal">
        <lane id=":Node2_0_0" index="0" speed="6.49" length="9.03" shape="-1.73,37.18 -4.19,37.50 -5.95,38.54 -7.00,40.28 -7.36,42.73"/>
    </edge>
    <edge id=":Node2_1" function="internal">
        <lane id=":Node2_1_0" index="0" speed="13.89" length="27.24" shape="-1.73,37.18 -28.95,36.99"/>
        <lane id=":Node2_1_1" index="1" speed="13.89" length="27.24" shape="-1.70,33.98 -28.94,33.79"/>
        <lane id=":Node2_1_2" index="2" speed="13.89" length="27.24" shape="-1.66,30.78 -28.93,30.59"/>
    </edge>
    <edge id=":Node2_4" function="internal">
        <lane id=":Node2_4_0" index="0" speed="10.38" length="4.91" shape="-1.66,30.78 -6.52,30.04"/>
    </edge>
    <edge id=":Node2_20" function="internal">
        <lane id=":Node2_20_0" index="0" speed="10.38" length="19.66" shape="-6.52,30.04 -8.34,29.76 -13.09,26.86 -15.91,22.08 -16.80,15.43"/>
    </edge>
    <edge id=":Node2_5" function="internal">
        <lane id=":Node2_5_0" index="0" speed="6.54" length="9.11" shape="-7.20,15.52 -6.87,17.97 -5.82,19.74 -4.05,20.80 -1.56,21.18"/>
    </edge>
    <edge id=":Node2_6" function="internal">
        <lane id=":Node2_6_0" index="0" speed="13.89" length="27.23" shape="-7.20,15.52 -7.36,42.73"/>
        <lane id=":Node2_6_1" index="1" speed="13.89" length="27.23" shape="-10.40,15.49 -10.56,42.73"/>
        <lane id=":Node2_6_2" index="2" speed="13.89" length="27.23" shape="-13.60,15.46 -13.76,42.72"/>
    </edge>
    <edge id=":Node2_9" function="internal">
        <lane id=":Node2_9_0" index="0" speed="10.39" length="4.90" shape="-13.60,15.46 -14.34,20.30"/>
    </edge>
    <edge id=":Node2_21" function="internal">
        <lane id=":Node2_21_0" index="0" speed="10.39" length="19.62" shape="-14.34,20.30 -14.61,22.10 -17.50,26.83 -22.27,29.66 -28.93,30.59"/>
    </edge>
    <edge id=":Node2_10" function="internal">
        <lane id=":Node2_10_0" index="0" speed="6.54" length="9.10" shape="-28.90,20.99 -26.42,20.64 -24.65,19.59 -23.58,17.84 -23.20,15.37"/>
    </edge>
    <edge id=":Node2_11" function="internal">
        <lane id=":Node2_11_0" index="0" speed="13.89" length="27.31" shape="-28.90,20.99 -1.56,21.18"/>
        <lane id=":Node2_11_1" index="1" speed="13.89" length="27.31" shape="-28.91,24.19 -1.59,24.38"/>
        <lane id=":Node2_11_2" index="2" speed="13.89" length="27.31" shape="-28.92,27.39 -1.63,27.58"/>
    </edge>
    <edge id=":Node2_14" function="internal">
        <lane id=":Node2_14_0" index="0" speed="10.38" length="5.12" shape="-28.92,27.39 -23.85,28.13"/>
    </edge>
    <edge id=":Node2_22" function="internal">
        <lane id=":Node2_22_0" index="0" speed="10.38" length="19.46" shape="-23.85,28.13 -22.27,28.36 -17.53,31.24 -14.69,36.03 -13.76,42.72"/>
    </edge>
    <edge id=":Node2_15" function="internal">
        <lane id=":Node2_15_0" index="0" speed="6.53" length="9.11" shape="-23.36,42.70 -23.70,40.21 -24.75,38.42 -26.50,37.35 -28.95,36.99"/>
    </edge>
    <edge id=":Node2_16" function="internal">
        <lane id=":Node2_16_0" index="0" speed="13.89" length="27.30" shape="-23.36,42.70 -23.20,15.37"/>
        <lane id=":Node2_16_1" index="1" speed="13.89" length="27.30" shape="-20.16,42.71 -20.00,15.40"/>
        <lane id=":Node2_16_2" index="2" speed="13.89" length="27.30" shape="-16.96,42.71 -16.80,15.43"/>
    </edge>
    <edge id=":Node2_19" function="internal">
        <lane id=":Node2_19_0" index="0" speed="10.35" length="5.13" shape="-16.96,42.71 -16.22,37.63"/>
    </edge>
    <edge id=":Node2_23" function="internal">
        <lane id=":Node2_23_0" index="0" speed="10.35" length="19.48" shape="-16.22,37.63 -15.99,36.03 -13.11,31.28 -8.32,28.46 -1.63,27.58"/>
    </edge>
    <edge id=":Node3_0" function="internal">
        <lane id=":Node3_0_0" index="0" speed="11.12" length="28.71" shape="115.72,20.60 114.64,28.41 111.32,33.96 105.75,37.25 97.93,38.28"/>
        <lane id=":Node3_0_1" index="1" speed="10.10" length="23.49" shape="112.52,20.61 111.64,27.00 108.92,31.55 104.36,34.24 97.96,35.08"/>
        <lane id=":Node3_0_2" index="2" speed="8.96" length="18.27" shape="109.32,20.63 108.64,25.60 106.52,29.13 102.97,31.23 98.00,31.88"/>
    </edge>
    <edge id=":Node3_3" function="internal">
        <lane id=":Node3_3_0" index="0" speed="3.90" length="2.61" shape="98.10,22.28 98.81,22.19 99.32,21.89 99.62,21.39 99.72,20.67"/>
        <lane id=":Node3_3_1" index="1" speed="6.08" length="7.83" shape="98.07,25.48 100.20,25.20 101.72,24.30 102.63,22.79 102.92,20.66"/>
        <lane id=":Node3_3_2" index="2" speed="7.65" length="13.05" shape="98.03,28.68 101.59,28.21 104.12,26.72 105.63,24.19 106.12,20.64"/>
    </edge>
    <edge id=":Node5_0" function="internal">
        <lane id=":Node5_0_0" index="0" speed="6.74" length="9.50" shape="-1.06,-49.42 -3.49,-48.97 -5.23,-47.78 -6.29,-45.84 -6.66,-43.16"/>
    </edge>
    <edge id=":Node5_1" function="internal">
        <lane id=":Node5_1_0" index="0" speed="13.89" length="27.16" shape="-1.06,-49.42 -28.25,-48.86"/>
        <lane id=":Node5_1_1" index="1" speed="13.89" length="27.16" shape="-1.14,-52.62 -28.29,-52.06"/>
        <lane id=":Node5_1_2" index="2" speed="13.89" length="27.16" shape="-1.23,-55.82 -28.34,-55.26"/>
    </edge>
    <edge id=":Node5_4" function="internal">
        <lane id=":Node5_4_0" index="0" speed="13.89" length="27.06" shape="-28.49,-64.86 -1.48,-65.41"/>
        <lane id=":Node5_4_1" index="1" speed="13.89" length="27.06" shape="-28.44,-61.66 -1.39,-62.21"/>
        <lane id=":Node5_4_2" index="2" speed="13.89" length="27.06" shape="-28.39,-58.46 -1.31,-59.02"/>
    </edge>
    <edge id=":Node5_7" function="internal">
        <lane id=":Node5_7_0" index="0" speed="10.85" length="5.72" shape="-28.39,-58.46 -22.71,-57.87"/>
        <lane id=":Node5_7_1" index="1" speed="10.33" length="4.83" shape="-28.39,-58.46 -23.61,-57.84"/>
    </edge>
    <edge id=":Node5_13" function="internal">
        <lane id=":Node5_13_0" index="0" speed="10.85" length="21.75" shape="-22.71,-57.87 -20.23,-57.61 -14.42,-54.78 -10.96,-49.97 -9.86,-43.19"/>
    </edge>
    <edge id=":Node5_14" function="internal">
        <lane id=":Node5_14_0" index="0" speed="10.33" length="19.97" shape="-23.61,-57.84 -21.63,-57.59 -16.82,-54.77 -13.96,-49.97 -13.06,-43.22"/>
    </edge>
    <edge id=":Node5_9" function="internal">
        <lane id=":Node5_9_0" index="0" speed="6.45" length="9.03" shape="-22.66,-43.30 -22.99,-45.77 -24.03,-47.51 -25.78,-48.54 -28.25,-48.86"/>
        <lane id=":Node5_9_1" index="1" speed="7.96" length="14.29" shape="-19.46,-43.27 -19.98,-47.17 -21.63,-49.93 -24.40,-51.56 -28.29,-52.06"/>
    </edge>
    <edge id=":Node5_11" function="internal">
        <lane id=":Node5_11_0" index="0" speed="11.50" length="29.62" shape="-19.46,-43.27 -18.26,-51.39 -14.86,-57.25 -9.23,-60.86 -1.39,-62.21"/>
        <lane id=":Node5_11_1" index="1" speed="10.52" length="24.59" shape="-16.26,-43.24 -15.27,-50.00 -12.45,-54.88 -7.80,-57.88 -1.31,-59.02"/>
    </edge>
    <edge id=":Node6_0" function="internal">
        <lane id=":Node6_0_0" index="0" speed="11.12" length="28.55" shape="-156.23,-45.14 -155.30,-52.92 -152.11,-58.51 -146.64,-61.92 -138.91,-63.15"/>
        <lane id=":Node6_0_1" index="1" speed="10.10" length="23.36" shape="-153.03,-45.21 -152.27,-51.58 -149.66,-56.15 -145.19,-58.94 -138.86,-59.95"/>
        <lane id=":Node6_0_2" index="2" speed="8.96" length="18.17" shape="-149.83,-45.29 -149.24,-50.24 -147.21,-53.80 -143.73,-55.97 -138.81,-56.75"/>
    </edge>
    <edge id=":Node6_3" function="internal">
        <lane id=":Node6_3_0" index="0" speed="3.90" length="2.60" shape="-138.66,-47.15 -139.36,-47.04 -139.86,-46.73 -140.15,-46.22 -140.24,-45.51"/>
        <lane id=":Node6_3_1" index="1" speed="6.08" length="7.79" shape="-138.71,-50.35 -140.82,-50.02 -142.31,-49.08 -143.18,-47.56 -143.44,-45.44"/>
        <lane id=":Node6_3_2" index="2" speed="7.65" length="12.98" shape="-138.76,-53.55 -142.28,-52.99 -144.76,-51.44 -146.21,-48.90 -146.63,-45.36"/>
    </edge>

    <edge id="-E10" from="Node5" to="J9" priority="-1">
        <lane id="-E10_0" index="0" speed="13.89" length="98.82" shape="-1.48,-65.41 97.31,-67.99"/>
        <lane id="-E10_1" index="1" speed="13.89" length="98.82" shape="-1.39,-62.21 97.39,-64.79"/>
        <lane id="-E10_2" index="2" speed="13.89" length="98.82" shape="-1.31,-59.02 97.48,-61.59"/>
    </edge>
    <edge id="-E11" from="Node6" to="Node5" priority="-1">
        <lane id="-E11_0" index="0" speed="13.89" length="110.43" shape="-138.91,-63.15 -28.49,-64.86"/>
        <lane id="-E11_1" index="1" speed="13.89" length="110.43" shape="-138.86,-59.95 -28.44,-61.66"/>
        <lane id="-E11_2" index="2" speed="13.89" length="110.43" shape="-138.81,-56.75 -28.39,-58.46"/>
    </edge>
    <edge id="-E12" from="Node1" to="Node6" priority="-1">
        <lane id="-E12_0" index="0" speed="13.89" length="64.62" shape="-154.73,19.46 -156.23,-45.14"/>
        <lane id="-E12_1" index="1" speed="13.89" length="64.62" shape="-151.53,19.38 -153.03,-45.21"/>
        <lane id="-E12_2" index="2" speed="13.89" length="64.62" shape="-148.33,19.31 -149.83,-45.29"/>
    </edge>
    <edge id="-E9" from="J9" to="Node3" priority="-1">
        <lane id="-E9_0" index="0" speed="13.89" length="71.08" shape="115.37,-50.48 115.72,20.60"/>
        <lane id="-E9_1" index="1" speed="13.89" length="71.08" shape="112.17,-50.47 112.52,20.61"/>
        <lane id="-E9_2" index="2" speed="13.89" length="71.08" shape="108.97,-50.45 109.32,20.63"/>
    </edge>
    <edge id="E10" from="J9" to="Node5" priority="-1">
        <lane id="E10_0" index="0" speed="13.89" length="98.82" shape="97.73,-52.00 -1.06,-49.42"/>
        <lane id="E10_1" index="1" speed="13.89" length="98.82" shape="97.64,-55.20 -1.14,-52.62"/>
        <lane id="E10_2" index="2" speed="13.89" length="98.82" shape="97.56,-58.39 -1.23,-55.82"/>
    </edge>
    <edge id="E11" from="Node5" to="Node6" priority="-1">
        <lane id="E11_0" index="0" speed="13.89" length="110.43" shape="-28.25,-48.86 -138.66,-47.15"/>
        <lane id="E11_1" index="1" speed="13.89" length="110.43" shape="-28.29,-52.06 -138.71,-50.35"/>
        <lane id="E11_2" index="2" speed="13.89" length="110.43" shape="-28.34,-55.26 -138.76,-53.55"/>
    </edge>
    <edge id="E12" from="Node6" to="Node1" priority="-1">
        <lane id="E12_0" index="0" speed="13.89" length="64.62" shape="-140.24,-45.51 -138.73,19.09"/>
        <lane id="E12_1" index="1" speed="13.89" length="64.62" shape="-143.44,-45.44 -141.93,19.16"/>
        <lane id="E12_2" index="2" speed="13.89" length="64.62" shape="-146.63,-45.36 -145.13,19.24"/>
    </edge>
    <edge id="E9" from="Node3" to="J9" priority="-1">
        <lane id="E9_0" index="0" speed="13.89" length="71.08" shape="99.72,20.67 99.37,-50.41"/>
        <lane id="E9_1" index="1" speed="13.89" length="71.08" shape="102.92,20.66 102.57,-50.42"/>
        <lane id="E9_2" index="2" speed="13.89" length="71.08" shape="106.12,20.64 105.77,-50.44"/>
    </edge>
    <edge id="Node1_2_EB" from="Node1" to="Node2" priority="-1">
        <lane id="Node1_2_EB_0" index="0" speed="13.89" length="108.24" shape="-137.14,20.65 -28.90,20.99"/>
        <lane id="Node1_2_EB_1" index="1" speed="13.89" length="108.24" shape="-137.15,23.85 -28.91,24.19"/>
        <lane id="Node1_2_EB_2" index="2" speed="13.89" length="108.24" shape="-137.16,27.05 -28.92,27.39"/>
    </edge>
    <edge id="Node1_2_WB" from="Node2" to="Node1" priority="-1">
        <lane id="Node1_2_WB_0" index="0" speed="13.89" length="108.24" shape="-28.95,36.99 -137.19,36.65"/>
        <lane id="Node1_2_WB_1" index="1" speed="13.89" length="108.24" shape="-28.94,33.79 -137.18,33.45"/>
        <lane id="Node1_2_WB_2" index="2" speed="13.89" length="108.24" shape="-28.93,30.59 -137.17,30.25"/>
    </edge>
    <edge id="Node2_3_EB" from="Node2" to="Node3" priority="-1">
        <lane id="Node2_3_EB_0" index="0" speed="13.89" length="99.67" shape="-1.56,21.18 98.10,22.28"/>
        <lane id="Node2_3_EB_1" index="1" speed="13.89" length="99.67" shape="-1.59,24.38 98.07,25.48"/>
        <lane id="Node2_3_EB_2" index="2" speed="13.89" length="99.67" shape="-1.63,27.58 98.03,28.68"/>
    </edge>
    <edge id="Node2_3_WB" from="Node3" to="Node2" priority="-1">
        <lane id="Node2_3_WB_0" index="0" speed="13.89" length="99.67" shape="97.93,38.28 -1.73,37.18"/>
        <lane id="Node2_3_WB_1" index="1" speed="13.89" length="99.67" shape="97.96,35.08 -1.70,33.98"/>
        <lane id="Node2_3_WB_2" index="2" speed="13.89" length="99.67" shape="98.00,31.88 -1.66,30.78"/>
    </edge>
    <edge id="Node2_5_NB" from="Node5" to="Node2" priority="-1">
        <lane id="Node2_5_NB_0" index="0" speed="13.89" length="58.68" shape="-6.66,-43.16 -7.20,15.52"/>
        <lane id="Node2_5_NB_1" index="1" speed="13.89" length="58.68" shape="-9.86,-43.19 -10.40,15.49"/>
        <lane id="Node2_5_NB_2" index="2" speed="13.89" length="58.68" shape="-13.06,-43.22 -13.60,15.46"/>
    </edge>
    <edge id="Node2_5_SB" from="Node2" to="Node5" priority="-1">
        <lane id="Node2_5_SB_0" index="0" speed="13.89" length="58.68" shape="-23.20,15.37 -22.66,-43.30"/>
        <lane id="Node2_5_SB_1" index="1" speed="13.89" length="58.68" shape="-20.00,15.40 -19.46,-43.27"/>
        <lane id="Node2_5_SB_2" index="2" speed="13.89" length="58.68" shape="-16.80,15.43 -16.26,-43.24"/>
    </edge>
    <edge id="Node2_7_NB" from="Node2" to="Node7" priority="-1">
        <lane id="Node2_7_NB_0" index="0" speed="13.89" length="81.10" shape="-7.36,42.73 -7.53,123.84"/>
        <lane id="Node2_7_NB_1" index="1" speed="13.89" length="81.10" shape="-10.56,42.73 -10.73,123.83"/>
        <lane id="Node2_7_NB_2" index="2" speed="13.89" length="81.10" shape="-13.76,42.72 -13.93,123.82"/>
    </edge>
    <edge id="Node2_7_SB" from="Node7" to="Node2" priority="-1">
        <lane id="Node2_7_SB_0" index="0" speed="13.89" length="81.10" shape="-23.53,123.80 -23.36,42.70"/>
        <lane id="Node2_7_SB_1" index="1" speed="13.89" length="81.10" shape="-20.33,123.81 -20.16,42.71"/>
        <lane id="Node2_7_SB_2" index="2" speed="13.89" length="81.10" shape="-17.13,123.82 -16.96,42.71"/>
    </edge>

    <tlLogic id="Node2" type="static" programID="0" offset="0">
        <phase duration="42" state="rrrrrGGGGgrrrrrGGGGg"/>
        <phase duration="3"  state="rrrrryyyyyrrrrryyyyy"/>
        <phase duration="42" state="GGGGgrrrrrGGGGgrrrrr"/>
        <phase duration="3"  state="yyyyyrrrrryyyyyrrrrr"/>
    </tlLogic>
    <tlLogic id="Node5" type="static" programID="0" offset="0">
        <phase duration="42" state="GGGGGGGggrrrr"/>
        <phase duration="3"  state="Gyyyyyyyyrrrr"/>
        <phase duration="42" state="GrrrrrrrrGGGG"/>
        <phase duration="3"  state="Grrrrrrrryyyy"/>
    </tlLogic>

    <junction id="J9" type="priority" x="107.32" y="-60.25" incLanes="E9_0 E9_1 E9_2 -E10_0 -E10_1 -E10_2" intLanes=":J9_0_0 :J9_0_1 :J9_0_2 :J9_3_0 :J9_3_1 :J9_3_2" shape="97.77,-50.40 116.97,-50.49 116.39,-56.47 114.74,-61.33 111.99,-65.07 108.17,-67.70 103.26,-69.20 97.27,-69.59">
        <request index="0" response="000000" foes="000000" cont="0"/>
        <request index="1" response="000000" foes="000000" cont="0"/>
        <request index="2" response="000000" foes="000000" cont="0"/>
        <request index="3" response="000000" foes="000000" cont="0"/>
        <request index="4" response="000000" foes="000000" cont="0"/>
        <request index="5" response="000000" foes="000000" cont="0"/>
    </junction>
    <junction id="Node1" type="priority" x="-146.51" y="28.62" incLanes="Node1_2_WB_0 Node1_2_WB_1 Node1_2_WB_2 E12_0 E12_1 E12_2" intLanes=":Node1_0_0 :Node1_0_1 :Node1_0_2 :Node1_3_0 :Node1_3_1 :Node1_3_2" shape="-137.19,38.25 -137.13,19.05 -156.33,19.50 -155.67,25.21 -154.01,29.89 -151.32,33.53 -147.63,36.14 -142.92,37.71">
        <request index="0" response="000000" foes="000000" cont="0"/>
        <request index="1" response="000000" foes="000000" cont="0"/>
        <request index="2" response="000000" foes="000000" cont="0"/>
        <request index="3" response="000000" foes="000000" cont="0"/>
        <request index="4" response="000000" foes="000000" cont="0"/>
        <request index="5" response="000000" foes="000000" cont="0"/>
    </junction>
    <junction id="Node2" type="traffic_light" x="-15.33" y="29.03" incLanes="Node2_3_WB_0 Node2_3_WB_1 Node2_3_WB_2 Node2_5_NB_0 Node2_5_NB_1 Node2_5_NB_2 Node1_2_EB_0 Node1_2_EB_1 Node1_2_EB_2 Node2_7_SB_0 Node2_7_SB_1 Node2_7_SB_2" intLanes=":Node2_0_0 :Node2_1_0 :Node2_1_1 :Node2_1_2 :Node2_20_0 :Node2_5_0 :Node2_6_0 :Node2_6_1 :Node2_6_2 :Node2_21_0 :Node2_10_0 :Node2_11_0 :Node2_11_1 :Node2_11_2 :Node2_22_0 :Node2_15_0 :Node2_16_0 :Node2_16_1 :Node2_16_2 :Node2_23_0" shape="-1.75,38.78 -1.54,19.58 -3.81,19.11 -4.61,18.55 -5.17,17.76 -5.50,16.76 -5.60,15.54 -24.80,15.36 -25.27,17.60 -25.84,18.39 -26.64,18.95 -27.65,19.28 -28.89,19.39 -28.95,38.59 -26.73,39.05 -25.95,39.62 -25.40,40.42 -25.07,41.44 -24.96,42.70 -5.76,42.74 -5.31,40.52 -4.75,39.75 -3.97,39.20 -2.97,38.88">
        <request index="0"  response="00000000000111000000" foes="00000000000111000000" cont="0"/>
        <request index="1"  response="11111000001111000000" foes="11111100001111000000" cont="0"/>
        <request index="2"  response="11111000001111000000" foes="11111100001111000000" cont="0"/>
        <request index="3"  response="11111000001111000000" foes="11111100001111000000" cont="0"/>
        <request index="4"  response="11110011101111000000" foes="11110011101111000000" cont="1"/>
        <request index="5"  response="00000000000000000000" foes="00000011100000000000" cont="0"/>
        <request index="6"  response="00000100000000010000" foes="10000111100000011111" cont="0"/>
        <request index="7"  response="00000100000000010000" foes="10000111100000011111" cont="0"/>
        <request index="8"  response="00000100000000010000" foes="10000111100000011111" cont="0"/>
        <request index="9"  response="01110100000000010000" foes="01110111100000011110" cont="1"/>
        <request index="10" response="01110000000000000000" foes="01110000000000000000" cont="0"/>
        <request index="11" response="11110000001111100000" foes="11110000001111110000" cont="0"/>
        <request index="12" response="11110000001111100000" foes="11110000001111110000" cont="0"/>
        <request index="13" response="11110000001111100000" foes="11110000001111110000" cont="0"/>
        <request index="14" response="11110000001111001110" foes="11110000001111001110" cont="1"/>
        <request index="15" response="00000000000000000000" foes="00000000000000001110" cont="0"/>
        <request index="16" response="00000100000000010000" foes="00000111111000011110" cont="0"/>
        <request index="17" response="00000100000000010000" foes="00000111111000011110" cont="0"/>
        <request index="18" response="00000100000000010000" foes="00000111111000011110" cont="0"/>
        <request index="19" response="00000100000111010000" foes="00000111100111011110" cont="1"/>
    </junction>
    <junction id="Node3" type="priority" x="107.77" y="30.39" incLanes="-E9_0 -E9_1 -E9_2 Node2_3_EB_0 Node2_3_EB_1 Node2_3_EB_2" intLanes=":Node3_0_0 :Node3_0_1 :Node3_0_2 :Node3_3_0 :Node3_3_1 :Node3_3_2" shape="117.32,20.59 98.12,20.68 97.91,39.88 103.87,39.41 108.74,37.83 112.52,35.17 115.21,31.40 116.81,26.54">
        <request index="0" response="000000" foes="000000" cont="0"/>
        <request index="1" response="000000" foes="000000" cont="0"/>
        <request index="2" response="000000" foes="000000" cont="0"/>
        <request index="3" response="000000" foes="000000" cont="0"/>
        <request index="4" response="000000" foes="000000" cont="0"/>
        <request index="5" response="000000" foes="000000" cont="0"/>
    </junction>
    <junction id="Node5" type="traffic_light" x="-14.53" y="-57.07" incLanes="E10_0 E10_1 E10_2 -E11_0 -E11_1 -E11_2 Node2_5_SB_0 Node2_5_SB_1 Node2_5_SB_2" intLanes=":Node5_0_0 :Node5_1_0 :Node5_1_1 :Node5_1_2 :Node5_4_0 :Node5_4_1 :Node5_4_2 :Node5_13_0 :Node5_14_0 :Node5_9_0 :Node5_9_1 :Node5_11_0 :Node5_11_1" shape="-1.02,-47.82 -1.52,-67.01 -28.52,-66.45 -28.22,-47.26 -26.00,-46.85 -25.23,-46.30 -24.68,-45.53 -24.36,-44.54 -24.26,-43.32 -5.06,-43.14 -4.59,-45.69 -4.03,-46.60 -3.24,-47.25 -2.24,-47.66">
        <request index="0"  response="0000000000000" foes="0000000000000" cont="0"/>
        <request index="1"  response="0000000000000" foes="1111110000000" cont="0"/>
        <request index="2"  response="0000000000000" foes="1111110000000" cont="0"/>
        <request index="3"  response="0000000000000" foes="1111110000000" cont="0"/>
        <request index="4"  response="0000000000000" foes="1100000000000" cont="0"/>
        <request index="5"  response="0000000000000" foes="1100000000000" cont="0"/>
        <request index="6"  response="0000000000000" foes="1100000000000" cont="0"/>
        <request index="7"  response="0000000001110" foes="1100000001110" cont="1"/>
        <request index="8"  response="0000000001110" foes="1100000001110" cont="1"/>
        <request index="9"  response="0000000001110" foes="0000000001110" cont="0"/>
        <request index="10" response="0000000001110" foes="0000000001110" cont="0"/>
        <request index="11" response="0000111111110" foes="0000111111110" cont="0"/>
        <request index="12" response="0000111111110" foes="0000111111110" cont="0"/>
    </junction>
    <junction id="Node6" type="priority" x="-148.46" y="-55.00" incLanes="-E12_0 -E12_1 -E12_2 E11_0 E11_1 E11_2" intLanes=":Node6_0_0 :Node6_0_1 :Node6_0_2 :Node6_3_0 :Node6_3_1 :Node6_3_2" shape="-157.83,-45.10 -138.64,-45.55 -138.93,-64.75 -144.83,-64.12 -149.63,-62.43 -153.33,-59.69 -155.93,-55.88 -157.43,-51.02">
        <request index="0" response="000000" foes="000000" cont="0"/>
        <request index="1" response="000000" foes="000000" cont="0"/>
        <request index="2" response="000000" foes="000000" cont="0"/>
        <request index="3" response="000000" foes="000000" cont="0"/>
        <request index="4" response="000000" foes="000000" cont="0"/>
        <request index="5" response="000000" foes="000000" cont="0"/>
    </junction>
    <junction id="Node7" type="dead_end" x="-15.53" y="123.82" incLanes="Node2_7_NB_0 Node2_7_NB_1 Node2_7_NB_2" intLanes="" shape="-15.53,123.82 -5.93,123.84 -15.53,123.82"/>

    <junction id=":Node2_20_0" type="internal" x="-6.52" y="30.04" incLanes=":Node2_4_0 Node1_2_EB_0 Node1_2_EB_1 Node1_2_EB_2" intLanes=":Node2_6_0 :Node2_6_1 :Node2_6_2 :Node2_9_0 :Node2_10_0 :Node2_11_0 :Node2_11_1 :Node2_11_2 :Node2_16_0 :Node2_16_1 :Node2_16_2 :Node2_19_0"/>
    <junction id=":Node2_21_0" type="internal" x="-14.34" y="20.30" incLanes=":Node2_9_0 Node2_7_SB_0 Node2_7_SB_1 Node2_7_SB_2" intLanes=":Node2_1_0 :Node2_1_1 :Node2_1_2 :Node2_4_0 :Node2_11_0 :Node2_11_1 :Node2_11_2 :Node2_14_0 :Node2_15_0 :Node2_16_0 :Node2_16_1 :Node2_16_2"/>
    <junction id=":Node2_22_0" type="internal" x="-23.85" y="28.13" incLanes=":Node2_14_0 Node2_3_WB_0 Node2_3_WB_1 Node2_3_WB_2" intLanes=":Node2_0_0 :Node2_1_0 :Node2_1_1 :Node2_1_2 :Node2_6_0 :Node2_6_1 :Node2_6_2 :Node2_9_0 :Node2_16_0 :Node2_16_1 :Node2_16_2 :Node2_19_0"/>
    <junction id=":Node2_23_0" type="internal" x="-16.22" y="37.63" incLanes=":Node2_19_0 Node2_5_NB_0 Node2_5_NB_1 Node2_5_NB_2" intLanes=":Node2_1_0 :Node2_1_1 :Node2_1_2 :Node2_4_0 :Node2_5_0 :Node2_6_0 :Node2_6_1 :Node2_6_2 :Node2_11_0 :Node2_11_1 :Node2_11_2 :Node2_14_0"/>
    <junction id=":Node5_13_0" type="internal" x="-22.71" y="-57.87" incLanes=":Node5_7_0 E10_0 E10_1 E10_2" intLanes=":Node5_1_0 :Node5_1_1 :Node5_1_2 :Node5_11_0 :Node5_11_1"/>
    <junction id=":Node5_14_0" type="internal" x="-23.61" y="-57.84" incLanes=":Node5_7_1 E10_0 E10_1 E10_2" intLanes=":Node5_1_0 :Node5_1_1 :Node5_1_2 :Node5_11_0 :Node5_11_1"/>

    <connection from="-E10" to="-E9" fromLane="0" toLane="0" via=":J9_3_0" dir="l" state="M"/>
    <connection from="-E10" to="-E9" fromLane="1" toLane="1" via=":J9_3_1" dir="l" state="M"/>
    <connection from="-E10" to="-E9" fromLane="2" toLane="2" via=":J9_3_2" dir="l" state="M"/>
    <connection from="-E11" to="-E10" fromLane="0" toLane="0" via=":Node5_4_0" tl="Node5" linkIndex="4" dir="s" state="O"/>
    <connection from="-E11" to="-E10" fromLane="1" toLane="1" via=":Node5_4_1" tl="Node5" linkIndex="5" dir="s" state="O"/>
    <connection from="-E11" to="-E10" fromLane="2" toLane="2" via=":Node5_4_2" tl="Node5" linkIndex="6" dir="s" state="O"/>
    <connection from="-E11" to="Node2_5_NB" fromLane="2" toLane="1" via=":Node5_7_0" tl="Node5" linkIndex="7" dir="l" state="o"/>
    <connection from="-E11" to="Node2_5_NB" fromLane="2" toLane="2" via=":Node5_7_1" tl="Node5" linkIndex="8" dir="l" state="o"/>
    <connection from="-E12" to="-E11" fromLane="0" toLane="0" via=":Node6_0_0" dir="l" state="M"/>
    <connection from="-E12" to="-E11" fromLane="1" toLane="1" via=":Node6_0_1" dir="l" state="M"/>
    <connection from="-E12" to="-E11" fromLane="2" toLane="2" via=":Node6_0_2" dir="l" state="M"/>
    <connection from="-E9" to="Node2_3_WB" fromLane="0" toLane="0" via=":Node3_0_0" dir="l" state="M"/>
    <connection from="-E9" to="Node2_3_WB" fromLane="1" toLane="1" via=":Node3_0_1" dir="l" state="M"/>
    <connection from="-E9" to="Node2_3_WB" fromLane="2" toLane="2" via=":Node3_0_2" dir="l" state="M"/>
    <connection from="E10" to="Node2_5_NB" fromLane="0" toLane="0" via=":Node5_0_0" tl="Node5" linkIndex="0" dir="r" state="O"/>
    <connection from="E10" to="E11" fromLane="0" toLane="0" via=":Node5_1_0" tl="Node5" linkIndex="1" dir="s" state="O"/>
    <connection from="E10" to="E11" fromLane="1" toLane="1" via=":Node5_1_1" tl="Node5" linkIndex="2" dir="s" state="O"/>
    <connection from="E10" to="E11" fromLane="2" toLane="2" via=":Node5_1_2" tl="Node5" linkIndex="3" dir="s" state="O"/>
    <connection from="E11" to="E12" fromLane="0" toLane="0" via=":Node6_3_0" dir="r" state="M"/>
    <connection from="E11" to="E12" fromLane="1" toLane="1" via=":Node6_3_1" dir="r" state="M"/>
    <connection from="E11" to="E12" fromLane="2" toLane="2" via=":Node6_3_2" dir="r" state="M"/>
    <connection from="E12" to="Node1_2_EB" fromLane="0" toLane="0" via=":Node1_3_0" dir="r" state="M"/>
    <connection from="E12" to="Node1_2_EB" fromLane="1" toLane="1" via=":Node1_3_1" dir="r" state="M"/>
    <connection from="E12" to="Node1_2_EB" fromLane="2" toLane="2" via=":Node1_3_2" dir="r" state="M"/>