<?xml version="1.0" encoding="UTF-8"?>

<!-- generated on 2025-04-21 16:59:27 by Eclipse SUMO sumo Version 1.21.0
-->

<sumoConfiguration xmlns:xsi="http://www.w3.org/2001/XMLSchema-instance" xsi:noNamespaceSchemaLocation="http://sumo.dlr.de/xsd/sumoConfiguration.xsd">

    <input>
        <net-file value="R1.net.xml"/>
        <route-files value="R1.rou.xml"/>
        <additional-files value="R1.add.xml"/>
    </input>

</sumoConfiguration>
